data/rfi_simulation/der050/ckt7_Mon_rfi_11_der050.csv
fault_bus,fault_type,fault_R_ohm,Va_mag_pu,Va_ang_deg,Vb_mag_pu,Vb_ang_deg,Vc_mag_pu,Vc_ang_deg,Ia_mag_A,Ia_ang_deg,Ib_mag_A,Ib_ang_deg,Ic_mag_A,Ic_ang_deg
318412,SLG,0,0.385784,-84.366,1.334634,-134.9614,1.028363,98.5033,10.362,-67.6166,19.0662,-156.2452,20.618,54.4756
318412,SLG,10,1.203713,-22.491,1.204193,-142.0971,1.197515,97.5258,18.5256,-50.3127,20.0245,-170.2698,18.5516,69.5327
318412,SLG,20,1.20364,-22.4694,1.204254,-142.0998,1.197534,97.5297,18.5256,-50.2975,20.0268,-170.2666,18.5495,69.5366
318412,SLG,30,1.203615,-22.4622,1.204275,-142.1007,1.19754,97.531,18.5257,-50.2924,20.0275,-170.2655,18.5488,69.5379
318412,SLG,40,1.203603,-22.4586,1.204285,-142.1012,1.197543,97.5316,18.5257,-50.2898,20.0279,-170.265,18.5484,69.5386
318412,LL,0,0.340839,-111.3304,0.23578,-166.2367,1.106832,103.4203,11.9385,-110.4154,6.2516,-124.4489,18.0073,65.739
318412,LL,10,1.203675,-22.4988,1.204339,-142.1404,1.197392,97.5313,18.5298,-50.3205,20.0246,-170.3012,18.5473,69.5253
318412,LL,20,1.203621,-22.4733,1.204327,-142.1215,1.197472,97.5325,18.5278,-50.3014,20.0268,-170.2823,18.5474,69.5329
318412,LL,30,1.203603,-22.4648,1.204323,-142.1152,1.197499,97.5328,18.5271,-50.295,20.0275,-170.276,18.5474,69.5354
318412,LL,40,1.203594,-22.4605,1.204321,-142.112,1.197512,97.533,18.5267,-50.2918,20.0279,-170.2728,18.5474,69.5367
318412,3LG,0,0.163953,-98.1239,0.163961,142.1291,0.163371,21.7345,2.7706,-125.9798,2.9972,114.0509,2.775,-6.1824
318412,3LG,10,1.203553,-22.4934,1.204302,-142.1482,1.197538,97.488,18.5255,-50.3279,20.0288,-170.309,18.5472,69.4949
318412,3LG,20,1.20356,-22.4706,1.204309,-142.1254,1.197545,97.5108,18.5256,-50.305,20.0289,-170.2862,18.5473,69.5177
318412,3LG,30,1.203562,-22.463,1.204311,-142.1178,1.197548,97.5184,18.5256,-50.2974,20.0289,-170.2786,18.5473,69.5253
318412,3LG,40,1.203563,-22.4592,1.204312,-142.1139,1.197549,97.5222,18.5257,-50.2936,20.0289,-170.2748,18.5473,69.5291
243937,SLG,0,0.521302,-97.6226,1.765119,-162.3685,1.65599,121.4206,18.1878,-60.6305,20.5387,-176.2805,19.9489,61.5872
243937,SLG,10,1.197568,-22.745,1.208919,-142.2248,1.197476,97.785,18.5102,-50.3936,20.0152,-170.2785,18.5592,69.4916
243937,SLG,20,1.200558,-22.5967,1.206626,-142.1638,1.197507,97.6597,18.5179,-50.3381,20.0221,-170.271,18.5533,69.516
243937,SLG,30,1.201559,-22.5471,1.205857,-142.1434,1.197521,97.6177,18.5205,-50.3195,20.0244,-170.2685,18.5514,69.5241
243937,SLG,40,1.20206,-22.5223,1.205473,-142.1332,1.197528,97.5967,18.5218,-50.3102,20.0255,-170.2672,18.5504,69.5282
243937,LL,0,0.269418,-129.0635,0.264183,-144.1956,1.621777,99.6757,10.1703,-113.4541,10.1183,-119.0831,20.0683,64.5551
243937,LL,10,1.197487,-22.4951,1.20288,-142.5204,1.202041,97.6624,18.5221,-50.4435,19.9922,-170.4047,18.5396,69.4845
243937,LL,20,1.200509,-22.4713,1.203598,-142.3123,1.199807,97.5986,18.5239,-50.3629,20.0106,-170.3342,18.5435,69.5123
243937,LL,30,1.201525,-22.4635,1.203837,-142.2426,1.199058,97.5771,18.5245,-50.336,20.0167,-170.3106,18.5448,69.5217
243937,LL,40,1.202034,-22.4595,1.203957,-142.2077,1.198682,97.5663,18.5248,-50.3226,20.0198,-170.2988,18.5454,69.5264
243937,3LG,0,0.040559,-81.6209,0.04056,158.6169,0.04042,38.2398,0.6855,-109.4812,0.7414,130.5456,0.6865,10.3198
243937,3LG,10,1.202047,-22.616,1.202795,-142.2711,1.196047,97.3652,18.5024,-50.4506,20.0037,-170.4318,18.524,69.3721
243937,3LG,20,1.202808,-22.532,1.203556,-142.1869,1.1968,97.4493,18.514,-50.3665,20.0164,-170.3476,18.5357,69.4562
243937,3LG,30,1.203061,-22.5039,1.203809,-142.1588,1.197051,97.4774,18.5179,-50.3384,20.0206,-170.3196,18.5396,69.4843
243937,3LG,40,1.203187,-22.4899,1.203936,-142.1447,1.197176,97.4914,18.5199,-50.3244,20.0227,-170.3055,18.5416,69.4984
157347,SLG,0,0.537459,-34.5362,1.442323,-155.1286,1.427712,110.0197,16.203,-52.5889,20.0891,-169.5634,18.4991,63.7334
157347,SLG,10,1.197912,-23.0754,1.210852,-142.0974,1.194192,97.801,18.499,-50.518,19.9973,-170.2837,18.5739,69.4459
157347,SLG,20,1.200755,-22.7638,1.207602,-142.0988,1.195838,97.6673,18.5125,-50.401,20.0131,-170.2739,18.5608,69.4932
157347,SLG,30,1.201695,-22.6589,1.206511,-142.0997,1.196401,97.6227,18.517,-50.3616,20.0184,-170.2705,18.5564,69.509
157347,SLG,40,1.202165,-22.6063,1.205964,-142.1003,1.196686,97.6004,18.5192,-50.3419,20.021,-170.2688,18.5542,69.5168
157347,LL,0,0.53607,-27.5487,0.564808,-151.6185,1.467505,97.214,12.9943,-71.6796,13.497,-156.5327,19.2108,67.0844
157347,LL,10,1.194576,-22.8094,1.205057,-142.7244,1.200714,97.8046,18.5266,-50.6142,19.9637,-170.5522,18.5339,69.4227
157347,LL,20,1.19904,-22.6309,1.204744,-142.4149,1.199115,97.6713,18.5263,-50.4488,19.9966,-170.4085,18.5408,69.4809
157347,LL,30,1.200542,-22.5704,1.204614,-142.3111,1.19859,97.6259,18.5261,-50.3934,20.0074,-170.3603,18.543,69.5006
157347,LL,40,1.201296,-22.5399,1.204544,-142.2591,1.198329,97.603,18.526,-50.3657,20.0128,-170.3361,18.5441,69.5105
157347,3LG,0,0.561194,-28.8926,0.561204,-148.6469,0.559064,90.9526,10.1672,-56.6953,11.0321,-176.6762,10.19,63.0023
157347,3LG,10,1.201004,-22.8051,1.201764,-142.4604,1.195016,97.1765,18.4864,-50.6396,19.9865,-170.6208,18.508,69.1831
157347,3LG,20,1.202295,-22.627,1.203049,-142.282,1.196293,97.3545,18.5062,-50.4615,20.0079,-170.4427,18.5279,69.3612
157347,3LG,30,1.202721,-22.5674,1.203474,-142.2223,1.196715,97.4141,18.5127,-50.4019,20.015,-170.383,18.5344,69.4209
157347,3LG,40,1.202933,-22.5375,1.203685,-142.1924,1.196925,97.4439,18.516,-50.372,20.0185,-170.3532,18.5377,69.4507
298162,SLG,0,0.337127,-92.2135,1.616948,-152.4916,1.346155,117.1014,16.6291,-54.163,21.8557,-168.1766,20.4206,61.5803
298162,SLG,10,1.197051,-24.1165,1.217071,-141.7742,1.185181,97.8946,18.4567,-50.9324,19.9361,-170.3009,18.6213,69.2865
298162,SLG,20,1.200398,-23.2872,1.210682,-141.9324,1.19127,97.7103,18.4921,-50.6102,19.9823,-170.284,18.5851,69.414
298162,SLG,30,1.201474,-23.0086,1.208557,-141.9878,1.193343,97.6505,18.5035,-50.5015,19.9978,-170.2776,18.5727,69.4563
298162,SLG,40,1.202005,-22.8688,1.207495,-142.0159,1.194387,97.621,18.5091,-50.4469,20.0056,-170.2742,18.5664,69.4774
298162,LL,0,0.214163,-141.1593,0.212978,-144.4243,1.498259,101.6058,11.2117,-113.0159,11.3328,-114.7511,22.3942,66.7197
298162,LL,10,1.184685,-23.7656,1.210035,-143.4434,1.198033,98.2241,18.5355,-51.1881,19.8599,-171.0428,18.512,69.217
298162,LL,20,1.194101,-23.1142,1.207369,-142.7733,1.19764,97.8826,18.5311,-50.7373,19.9455,-170.6543,18.5304,69.3763
298162,LL,30,1.197251,-22.8937,1.206395,-142.5498,1.197576,97.767,18.5295,-50.5861,19.9735,-170.5243,18.5362,69.4305
298162,LL,40,1.198828,-22.7829,1.205891,-142.438,1.197557,97.709,18.5286,-50.5103,19.9875,-170.4591,18.5391,69.4578
298162,3LG,0,0.007203,-90.779,0.007205,149.4298,0.007178,29.1237,0.1218,-118.6322,0.1317,121.3727,0.1219,1.1812
298162,3LG,10,1.197075,-23.4367,1.197909,-143.092,1.191128,96.5479,18.4265,-51.2699,19.9218,-171.2517,18.4479,68.5524
298162,3LG,20,1.200357,-22.9436,1.201149,-142.5986,1.194375,97.0394,18.4766,-50.7774,19.976,-170.7589,18.4982,69.0451
298162,3LG,30,1.201435,-22.7786,1.202213,-142.4335,1.195442,97.2039,18.4931,-50.6126,19.9938,-170.594,18.5147,69.21
298162,3LG,40,1.201971,-22.696,1.202741,-142.3509,1.195973,97.2862,18.5013,-50.5302,20.0026,-170.5115,18.5229,69.2925
165448,SLG,0,0.330041,-92.4559,1.622876,-152.2656,1.339652,117.3494,16.7143,-53.8867,21.9656,-167.9666,20.5073,61.8105
165448,SLG,10,1.197193,-24.2489,1.217807,-141.7246,1.183903,97.8997,18.4517,-50.9841,19.9285,-170.3026,18.6273,69.2671
165448,SLG,20,1.200489,-23.354,1.21104,-141.9066,1.190621,97.7119,18.4898,-50.6364,19.9785,-170.2852,18.5882,69.4044
165448,SLG,30,1.20154,-23.0532,1.208793,-141.9703,1.192908,97.6514,18.502,-50.519,19.9953,-170.2784,18.5748,69.4499
165448,SLG,40,1.202056,-22.9023,1.207671,-142.0028,1.19406,97.6215,18.508,-50.4601,20.0037,-170.2748,18.568,69.4726
165448,LL,0,0.210678,-141.9217,0.209658,-144.9959,1.499026,101.7843,11.2373,-112.8148,11.3552,-114.4919,22.4481,66.9444
165448,LL,10,1.183548,-23.8943,1.210848,-143.5272,1.197518,98.2799,18.5372,-51.2587,19.8478,-171.1046,18.5093,69.1914
165448,LL,20,1.193541,-23.1797,1.207803,-142.8147,1.197353,97.9105,18.5321,-50.773,19.9396,-170.6853,18.5292,69.3632
165448,LL,30,1.196881,-22.9377,1.20669,-142.5772,1.197378,97.7857,18.5301,-50.6099,19.9696,-170.545,18.5355,69.4217
165448,LL,40,1.198551,-22.816,1.206115,-142.4585,1.197406,97.7229,18.5291,-50.5282,19.9846,-170.4747,18.5385,69.4512
165448,3LG,0,0.006673,-91.1673,0.006674,149.0387,0.006649,28.7398,0.1128,-119.0199,0.122,120.9832,0.1129,0.7949
165448,3LG,10,1.196636,-23.5158,1.197483,-143.171,1.190693,96.4694,18.4198,-51.3487,19.9146,-171.3306,18.4412,68.4735
165448,3LG,20,1.200143,-22.9833,1.200942,-142.6383,1.194164,97.0,18.4734,-50.817,19.9725,-170.7985,18.4949,69.0055
165448,3LG,30,1.201294,-22.8052,1.202076,-142.46,1.195302,97.1775,18.491,-50.6391,19.9915,-170.6205,18.5126,69.1835
165448,3LG,40,1.201866,-22.716,1.20264,-142.3708,1.195868,97.2664,18.4997,-50.55,20.0009,-170.5313,18.5213,69.2726
165449,SLG,0,0.262653,-97.8134,1.671904,-152.109,1.335358,119.4275,17.1712,-51.9307,22.5538,-166.7602,20.8871,63.3665
165449,SLG,10,1.200078,-25.5947,1.225737,-141.2098,1.170467,97.9614,18.4122,-51.498,19.8558,-170.3291,18.6889,69.0869
165449,SLG,20,1.202244,-24.0316,1.214808,-141.6357,1.183792,97.7288,18.4728,-50.8969,19.9421,-170.303,18.6204,69.3172
165449,SLG,30,1.202781,-23.5059,1.211258,-141.7867,1.188333,97.6596,18.4913,-50.6935,19.9711,-170.2913,18.5966,69.3925
165449,SLG,40,1.203013,-23.2422,1.209502,-141.864,1.190621,97.6265,18.5002,-50.5912,19.9855,-170.2849,18.5845,69.4298
165449,LL,0,0.17294,-150.7461,0.172842,-152.9364,1.527338,102.4961,11.3474,-111.4146,11.4172,-112.7054,22.6798,68.472
165449,LL,10,1.172854,-25.1984,1.22094,-144.3761,1.192442,98.8791,18.5694,-51.9375,19.7456,-171.7396,18.4864,68.9364
165449,LL,20,1.188417,-23.8466,1.213168,-143.2276,1.194367,98.2066,18.55,-51.1166,19.8906,-171.0028,18.52,69.2326
165449,LL,30,1.193518,-23.3855,1.210335,-142.8497,1.195286,97.9819,18.5425,-50.84,19.9375,-170.7566,18.5299,69.334
165449,LL,40,1.19605,-23.153,1.208873,-142.6618,1.195799,97.8696,18.5385,-50.7011,19.9606,-170.6334,18.5345,69.3852
165449,3LG,0,0.003873,-95.7398,0.003876,144.4253,0.003861,24.2092,0.0655,-123.5912,0.0708,116.3931,0.0656,-3.7621
165449,3LG,10,1.193511,-24.3019,1.194565,-143.9545,1.187599,95.6927,18.3729,-52.1302,19.8642,-172.1133,18.394,67.6912
165449,3LG,20,1.198677,-23.3788,1.199579,-143.0322,1.192706,96.6093,18.4514,-51.21,19.9488,-171.1921,18.4728,68.6121
165449,3LG,30,1.200338,-23.0693,1.201189,-142.7231,1.194351,96.9166,18.4766,-50.9016,19.9761,-170.8834,18.4981,68.9207
165449,3LG,40,1.201157,-22.9143,1.201983,-142.5682,1.195162,97.0705,18.4891,-50.747,19.9895,-170.7287,18.5106,69.0753
287274,SLG,0,0.279954,-83.2963,1.674234,-150.4213,1.286471,119.5373,17.0379,-51.6737,22.1962,-165.9829,20.711,64.3514
287274,SLG,10,1.196239,-26.5065,1.231574,-140.8699,1.161246,98.0242,18.3257,-51.8307,19.7949,-170.2668,18.7129,68.8902
287274,SLG,20,1.200667,-24.4991,1.217547,-141.4491,1.179007,97.7455,18.4321,-51.0718,19.9108,-170.2773,18.6346,69.2197
287274,SLG,30,1.201809,-23.82,1.213037,-141.6587,1.185108,97.6672,18.4648,-50.8119,19.95,-170.2755,18.6065,69.3278
287274,SLG,40,1.202315,-23.4787,1.210818,-141.7666,1.18819,97.631,18.4806,-50.6807,19.9696,-170.2735,18.5921,69.3814
287274,LL,0,0.162968,-102.9159,0.233977,-170.3601,1.517811,103.0284,11.562,-102.6404,11.0392,-120.9223,22.2959,69.2217
287274,LL,10,1.159673,-26.0653,1.222194,-144.9692,1.189578,99.3087,18.519,-52.4568,19.5984,-172.0923,18.4394,68.7752
287274,LL,20,1.182004,-24.3032,1.214164,-143.5161,1.192425,98.4194,18.5267,-51.3859,19.8184,-171.1843,18.4987,69.1457
287274,LL,30,1.189291,-23.695,1.211077,-143.0399,1.193876,98.1228,18.5274,-51.0217,19.8897,-170.8786,18.5162,69.2748
287274,LL,40,1.1929,-23.387,1.209459,-142.8036,1.194698,97.9748,18.5273,-50.8382,19.9249,-170.7253,18.5245,69.3403
287274,3LG,0,0.13128,-61.6082,0.131366,178.5271,0.130903,58.3585,2.2215,-89.4671,2.3999,150.5126,2.2219,30.3755
287274,3LG,10,1.18584,-24.8232,1.18709,-144.476,1.180014,95.1804,18.2563,-52.6479,19.7381,-172.6326,18.2768,67.1731
287274,3LG,20,1.194907,-23.6475,1.195909,-143.3005,1.18897,96.3454,18.3941,-51.4766,19.8869,-171.4596,18.4151,68.3452
287274,3LG,30,1.197841,-23.2503,1.198758,-142.9036,1.191874,96.7389,18.4387,-51.0811,19.935,-171.0634,18.4599,68.7411
287274,3LG,40,1.19929,-23.0506,1.200166,-142.7043,1.19331,96.9366,18.4607,-50.8823,19.9588,-170.8644,18.4821,68.94
283954,SLG,0,0.248306,-85.2026,1.685144,-150.917,1.301072,120.0038,16.7945,-50.8243,22.1752,-165.5981,20.4901,64.4073
283954,SLG,10,1.1984,-27.3198,1.236508,-140.5667,1.153137,98.0661,18.302,-52.1447,19.7507,-170.2815,18.7501,68.7807
283954,SLG,20,1.202134,-24.9085,1.219746,-141.2831,1.174864,97.7496,18.4236,-51.2324,19.8887,-170.2901,18.6548,69.1685
283954,SLG,30,1.202875,-24.0934,1.214437,-141.545,1.182332,97.6662,18.4599,-50.9196,19.9352,-170.2852,18.6204,69.2945
283954,SLG,40,1.203147,-23.6838,1.211842,-141.6802,1.186104,97.6288,18.4772,-50.7617,19.9586,-170.2813,18.6026,69.3568
283954,LL,0,0.147746,-98.244,0.220933,-176.9148,1.533171,102.8454,11.6164,-102.186,10.8016,-120.7307,22.1435,69.6331
283954,LL,10,1.153368,-26.8557,1.228847,-145.5029,1.186909,99.6883,18.5429,-52.8537,19.5426,-172.4919,18.4232,68.6189
283954,LL,20,1.179224,-24.715,1.217765,-143.7672,1.190566,98.6013,18.541,-51.5903,19.7926,-171.3844,18.4934,69.0645
283954,LL,30,1.187531,-23.9728,1.213529,-143.2034,1.192523,98.2415,18.5375,-51.1593,19.8729,-171.012,18.5133,69.2202
283954,LL,40,1.191616,-23.5965,1.211316,-142.9247,1.193641,98.0628,18.5351,-50.9419,19.9125,-170.8253,18.5226,69.2992
283954,3LG,0,0.13838,-63.9037,0.138503,176.1979,0.138044,56.0838,2.3426,-91.7682,2.5301,148.2038,2.3425,28.0843
283954,3LG,10,1.184398,-25.3014,1.18588,-144.9513,1.178596,94.7135,18.2355,-53.1207,19.7158,-173.1068,18.2556,66.6996
283954,3LG,20,1.194299,-23.8909,1.195415,-143.5417,1.18836,96.1078,18.3853,-51.7171,19.8775,-171.7007,18.4062,68.1044
283954,3LG,30,1.197462,-23.4134,1.198455,-143.0653,1.191491,96.5796,18.4332,-51.2422,19.9292,-171.225,18.4544,68.5797
283954,3LG,40,1.199017,-23.1733,1.199948,-142.8258,1.193032,96.8168,18.4568,-51.0035,19.9546,-170.9859,18.478,68.8186
283956,SLG,0,0.470162,-72.0212,1.641567,-147.7902,1.2128,117.9457,16.9496,-51.9421,21.8595,-167.9073,19.8988,63.2206
283956,SLG,10,1.198046,-27.2307,1.236032,-140.5995,1.153982,98.0642,18.3037,-52.1079,19.7558,-170.2782,18.7455,68.7923
283956,SLG,20,1.202022,-24.8856,1.219643,-141.2923,1.175083,97.7501,18.4238,-51.2228,19.89,-170.289,18.6536,69.1712
283956,SLG,30,1.202822,-24.083,1.214394,-141.5492,1.182431,97.6666,18.46,-50.9153,19.9358,-170.2846,18.6198,69.2957
283956,SLG,40,1.203117,-23.6779,1.211818,-141.6826,1.18616,97.629,18.4772,-50.7592,19.959,-170.2809,18.6023,69.3575
283956,LL,0,0.375229,-70.9488,0.458284,-179.0226,1.473656,103.8462,12.5204,-90.8505,10.0245,-146.0251,20.0376,66.5978
283956,LL,10,1.154292,-26.7649,1.227584,-145.4501,1.187316,99.6396,18.5416,-52.8192,19.5444,-172.4537,18.4248,68.6421
283956,LL,20,1.179436,-24.6905,1.217425,-143.755,1.190709,98.5895,18.5406,-51.581,19.793,-171.3748,18.4936,69.0707
283956,LL,30,1.187623,-23.9616,1.213375,-143.1981,1.192593,98.2363,18.5373,-51.155,19.8731,-171.0077,18.5134,69.223
283956,LL,40,1.191667,-23.5901,1.211229,-142.9217,1.193682,98.0599,18.535,-50.9394,19.9126,-170.8229,18.5226,69.3008
283956,3LG,0,0.389436,-60.7898,0.389952,179.3397,0.388329,59.1978,6.5916,-88.6355,7.1219,151.3308,6.5919,31.1958
283956,3LG,10,1.184457,-25.2608,1.185919,-144.911,1.178654,94.753,18.2363,-53.0806,19.7166,-173.0666,18.2564,66.7397
283956,3LG,20,1.194312,-23.8803,1.195422,-143.5313,1.188373,96.1181,18.3855,-51.7066,19.8777,-171.6902,18.4064,68.1149
283956,3LG,30,1.197468,-23.4086,1.198458,-143.0605,1.191497,96.5843,18.4333,-51.2374,19.9293,-171.2202,18.4544,68.5844
283956,3LG,40,1.19902,-23.1706,1.19995,-142.823,1.193035,96.8195,18.4568,-51.0007,19.9547,-170.9831,18.4781,68.8213
189963,SLG,0,0.046167,-75.6503,1.739711,-150.46,1.290486,122.3517,14.4998,-41.436,21.9154,-161.5247,18.235,64.5624
189963,SLG,10,1.168794,-30.2021,1.256697,-139.5943,1.124644,98.3734,17.8472,-53.1226,19.5321,-169.8206,18.7659,67.9443
189963,SLG,20,1.188699,-26.3913,1.228812,-140.7161,1.159864,97.8234,18.2062,-51.7732,19.771,-170.0905,18.6746,68.7473
189963,SLG,30,1.194253,-25.09,1.2202,-141.1494,1.172201,97.6972,18.3176,-51.2909,19.8552,-170.1595,18.6362,69.0138
189963,SLG,40,1.19681,-24.4342,1.216051,-141.377,1.178461,97.6452,18.3716,-51.0441,19.898,-170.1898,18.6155,69.1465
189963,LL,0,0.009468,-99.4819,0.051161,-158.5571,1.574016,103.0014,11.3448,-103.7763,11.3671,-108.4909,22.6808,74.0315
189963,LL,10,1.094429,-29.5249,1.216271,-147.5063,1.181569,101.1388,18.1785,-54.6247,18.8562,-173.3827,18.1711,68.1774
189963,LL,20,1.150501,-26.1563,1.212772,-144.716,1.185177,99.3044,18.3628,-52.5363,19.4508,-171.8568,18.3778,68.8008
189963,LL,30,1.168626,-24.955,1.210439,-143.8217,1.188337,98.6998,18.42,-51.8035,19.6454,-171.3324,18.439,69.036
189963,LL,40,1.177539,-24.3408,1.209079,-143.3829,1.190284,98.4019,18.4475,-51.4302,19.7419,-171.0676,18.468,69.1582
189963,3LG,0,0.027125,-18.5014,0.027141,-138.4937,0.027141,101.5167,0.4597,-46.4313,0.496,-166.4077,0.4599,73.496
189963,3LG,10,1.144726,-26.9139,1.147101,-146.5643,1.139474,93.1547,17.6328,-54.7158,19.0624,-174.7065,17.6502,65.1091
189963,3LG,20,1.174371,-24.7407,1.175944,-144.3876,1.168628,95.2866,18.0823,-52.5561,19.549,-172.542,18.1017,67.2676
189963,3LG,30,1.184171,-23.9897,1.185466,-143.638,1.178309,96.0226,18.231,-51.8109,19.71,-171.7952,18.2511,68.0124
189963,3LG,40,1.189048,-23.6092,1.190205,-143.2587,1.183137,96.3954,18.305,-51.4335,19.7901,-171.4171,18.3256,68.3896
181977,SLG,0,0.000755,-102.1158,1.732365,-150.7662,1.299466,122.0187,5439.3836,-101.9838,21.9551,-161.021,17.8991,64.1258
181977,SLG,10,1.154014,-31.4081,1.266449,-139.4145,1.11614,98.6899,847.2393,-31.8583,19.4481,-169.6626,18.7763,67.62
181977,SLG,20,1.18188,-27.022,1.233444,-140.5831,1.155017,97.9456,441.9452,-28.0146,19.7242,-170.027,18.6861,68.5816
181977,SLG,30,1.189859,-25.516,1.223198,-141.0509,1.168857,97.7699,302.079,-27.0315,19.823,-170.1211,18.6454,68.9031
181977,SLG,40,1.193576,-24.7556,1.218261,-141.2994,1.175915,97.6963,231.3927,-26.7754,19.8735,-170.1626,18.623,69.0634
181977,LL,0,0.00083,-66.6389,0.001113,142.257,1.578096,102.5767,5986.5736,-66.707,8006.8711,142.3323,22.75,74.5779
181977,LL,10,1.070783,-30.4232,1.209509,-148.5513,1.184593,101.6612,787.3308,-30.977,887.6408,-149.0636,18.0731,68.0047
181977,LL,20,1.138701,-26.6731,1.210231,-145.2217,1.18535,99.5784,426.3994,-27.7612,452.9733,-146.3262,18.3334,68.6883
181977,LL,30,1.160822,-25.3133,1.208908,-144.1534,1.188142,98.8817,295.1087,-26.9204,307.6242,-145.8264,18.4108,68.9559
181977,LL,40,1.171717,-24.6145,1.207988,-143.6292,1.190021,98.5375,227.4581,-26.7228,235.0442,-145.8489,18.4474,69.0963
181977,3LG,0,0.001086,-80.0129,0.001087,159.9916,0.001086,39.9978,7818.4341,-80.0129,7824.1801,159.9915,7821.3516,39.9977
181977,3LG,10,1.130549,-27.6171,1.1332,-147.2681,1.125487,92.4648,829.3918,-28.1782,832.5049,-147.8793,825.727,91.8959
181977,3LG,20,1.167154,-25.1154,1.168876,-144.7607,1.161473,94.9195,436.1263,-26.2171,437.9965,-145.9601,434.069,93.8037
181977,3LG,30,1.179339,-24.2448,1.180734,-143.8915,1.173511,95.7727,299.2027,-25.8676,300.8086,-145.6562,297.7952,94.1299
181977,3LG,40,1.185418,-23.8025,1.186649,-143.4506,1.179529,96.2061,229.66,-25.928,231.1664,-145.759,228.5934,94.0552
181924,SLG,0,0.155153,-17.6187,1.714435,-150.5968,1.29411,121.1853,15.3532,-44.5554,21.1792,-161.9316,18.6913,67.5372
181924,SLG,10,1.18233,-31.3413,1.260682,-138.7833,1.10753,98.0563,17.8124,-53.5758,19.4646,-169.8024,18.8174,67.789
181924,SLG,20,1.197551,-26.9357,1.229028,-140.2738,1.151705,97.5866,18.2055,-52.01,19.7374,-170.1075,18.7069,68.6885
181924,SLG,30,1.200611,-25.4449,1.219911,-140.8496,1.166911,97.5236,18.3211,-51.4492,19.8332,-170.1766,18.659,68.9797
181924,SLG,40,1.201749,-24.697,1.215668,-141.1508,1.174558,97.5093,18.3757,-51.1627,19.8817,-170.2048,18.633,69.1228
181924,LL,0,0.136823,-19.2243,0.151394,-132.4397,1.555418,102.1451,11.0781,-94.6774,11.3045,-117.742,21.8129,74.0928
181924,LL,10,1.088969,-31.0043,1.23479,-148.0537,1.170411,101.9038,18.2335,-55.0661,18.8242,-173.9929,18.1295,67.9544
181924,LL,20,1.150739,-26.9519,1.222476,-144.8748,1.177296,99.5895,18.4022,-52.7838,19.4442,-172.1574,18.3718,68.6771
181924,LL,30,1.16951,-25.4914,1.216864,-143.9015,1.182697,98.8621,18.4494,-51.9737,19.6428,-171.5313,18.4385,68.9535
181924,LL,40,1.178479,-24.7444,1.213861,-143.4331,1.185931,98.5126,18.4709,-51.5596,19.7406,-171.2161,18.4688,69.0967
181924,3LG,0,0.138914,-13.9408,0.139068,-133.9178,0.139007,106.1003,2.3545,-41.8573,2.5408,-161.8317,2.3555,78.0661
181924,3LG,10,1.145677,-27.5604,1.148502,-147.1909,1.140238,92.5384,17.649,-55.3449,19.0802,-175.337,17.6659,64.4795
181924,3LG,20,1.17545,-25.0828,1.177183,-144.7161,1.169506,94.9582,18.0988,-52.8887,19.567,-172.8751,18.1179,66.9347
181924,3LG,30,1.185039,-24.2215,1.186421,-143.8602,1.179022,95.7993,18.2441,-52.0364,19.7242,-172.021,18.264,67.7867
181924,3LG,40,1.189756,-23.7844,1.190971,-143.4265,1.183722,96.2263,18.3157,-51.604,19.8017,-171.5878,18.3361,68.2189
181993,SLG,0,0.225075,-19.9778,1.694988,-150.1329,1.28001,120.3224,15.8716,-46.1735,20.976,-162.3178,19.057,68.562
181993,SLG,10,1.186483,-31.4904,1.260482,-138.563,1.103594,97.9106,17.8051,-53.6343,19.4541,-169.7873,18.8233,67.7655
181993,SLG,20,1.200446,-27.0031,1.228281,-140.1538,1.149928,97.4874,18.2074,-52.0452,19.7318,-170.1086,18.7122,68.6825
181993,SLG,30,1.202719,-25.4871,1.219257,-140.7689,1.165794,97.4523,18.3237,-51.4733,19.8295,-170.1793,18.6629,68.9773
181993,SLG,40,1.203394,-24.7274,1.215118,-141.0903,1.173749,97.454,18.3781,-51.1809,19.879,-170.2075,18.6361,69.1217
181993,LL,0,0.194898,-19.7856,0.224141,-134.072,1.537787,102.1109,11.1229,-89.809,11.459,-123.2474,21.4583,73.8584
181993,LL,10,1.088829,-31.2845,1.239162,-148.0759,1.166877,102.0691,18.2439,-55.1022,18.8262,-174.0796,18.1187,67.93
181993,LL,20,1.151771,-27.1179,1.224886,-144.8455,1.174749,99.6361,18.4116,-52.811,19.4489,-172.2023,18.3711,68.6584
181993,LL,30,1.17047,-25.6048,1.218456,-143.8728,1.180885,98.8827,18.4568,-51.9936,19.6466,-171.5613,18.4391,68.9408
181993,LL,40,1.179303,-24.8301,1.215041,-143.4082,1.184538,98.524,18.4768,-51.5751,19.7438,-171.2387,18.4697,69.0871
181993,3LG,0,0.203295,-14.3883,0.203582,-134.3343,0.203375,105.6676,3.4454,-42.2875,3.7187,-162.2598,3.4473,77.6288
181993,3LG,10,1.14627,-27.6412,1.149128,-147.2635,1.140707,92.4632,17.6577,-55.4212,19.0897,-175.4128,17.6746,64.4034
181993,3LG,20,1.175994,-25.131,1.177713,-144.7594,1.169953,94.9119,18.1066,-52.9346,19.5755,-172.9208,18.1258,66.8888
181993,3LG,30,1.185462,-24.2552,1.186828,-143.8905,1.179375,95.7666,18.2501,-52.0686,19.7308,-172.0531,18.2701,67.7545
181993,3LG,40,1.190098,-23.8102,1.191296,-143.4498,1.184008,96.2011,18.3206,-51.6288,19.807,-171.6124,18.341,68.1942
181994,SLG,0,0.292288,-23.5515,1.675023,-149.4783,1.260863,119.4116,16.4651,-47.4421,20.9442,-162.8656,19.449,69.3003
181994,SLG,10,1.189578,-31.6477,1.260732,-138.3662,1.099859,97.7975,17.7934,-53.6891,19.4437,-169.7672,18.8275,67.7372
181994,SLG,20,1.20292,-27.0816,1.227755,-140.0405,1.148162,97.4008,18.2072,-52.0833,19.7256,-170.1081,18.7173,68.6729
181994,SLG,30,1.204575,-25.5378,1.218741,-140.6917,1.16467,97.3885,18.325,-51.5002,19.8253,-170.1812,18.667,68.9725
181994,SLG,40,1.204863,-24.7647,1.214668,-141.032,1.172931,97.404,18.3796,-51.2015,19.8758,-170.2097,18.6394,69.1187
181994,LL,0,0.25856,-21.4451,0.297722,-138.3247,1.519505,102.1846,11.3154,-84.8116,11.691,-129.2594,21.0945,73.488
181994,LL,10,1.087871,-31.5326,1.242742,-148.1329,1.164157,102.2374,18.2502,-55.1433,18.8212,-174.1639,18.1057,67.9111
181994,LL,20,1.152387,-27.2811,1.227079,-144.8353,1.172462,99.6889,18.4191,-52.8447,19.4504,-172.2505,18.3692,68.6388
181994,LL,30,1.171169,-25.7188,1.219932,-143.8567,1.179213,98.9077,18.4631,-52.0186,19.6484,-171.5944,18.439,68.9267
181994,LL,40,1.179938,-24.9171,1.216142,-143.3927,1.183241,98.5385,18.4821,-51.5947,19.7454,-171.2638,18.4701,69.0764
181994,3LG,0,0.27371,-17.468,0.274196,-137.3825,0.273739,102.6053,4.6385,-45.3482,5.0074,-165.3194,4.6415,74.5598
181994,3LG,10,1.146471,-27.7238,1.149367,-147.3382,1.140796,92.3865,17.6604,-55.4993,19.0926,-175.4905,17.6774,64.3255
181994,3LG,20,1.176353,-25.1847,1.178063,-144.808,1.170218,94.8604,18.1116,-52.9859,19.5809,-172.9719,18.1308,66.8375
181994,3LG,30,1.185769,-24.2935,1.187119,-143.9254,1.179611,95.7294,18.2544,-52.1054,19.7354,-172.0898,18.2744,67.7177
181994,3LG,40,1.190354,-23.8398,1.191538,-143.4768,1.18421,96.1722,18.3241,-51.6573,19.8109,-171.6409,18.3446,68.1657
181891,SLG,0,0.384839,-34.1096,1.640584,-147.9277,1.217728,117.7586,16.6711,-49.7654,20.7543,-163.6224,19.7743,68.6951
181891,SLG,10,1.185756,-31.408,1.261136,-138.5423,1.102843,97.9263,17.7978,-53.5496,19.4649,-169.7589,18.81,67.777
181891,SLG,20,1.20144,-27.0203,1.228304,-140.0997,1.148929,97.4577,18.2068,-52.0412,19.7321,-170.103,18.7114,68.6829
181891,SLG,30,1.203739,-25.5091,1.219137,-140.7236,1.165033,97.4226,18.3246,-51.4784,19.8288,-170.1783,18.6639,68.9774
181891,SLG,40,1.2043,-24.7475,1.214969,-141.0531,1.173151,97.4279,18.3794,-51.1875,19.8781,-170.2079,18.6374,69.1219
181891,LL,0,0.351204,-30.5832,0.399584,-149.5617,1.484272,102.6633,11.8888,-79.966,12.0869,-138.5063,20.7187,71.842
181891,LL,10,1.088576,-31.0817,1.237498,-148.0976,1.16851,102.093,18.2491,-55.0198,18.8252,-174.0383,18.1124,68.007
181891,LL,20,1.151903,-27.1454,1.225748,-144.8495,1.174139,99.6741,18.4169,-52.8026,19.4516,-172.2143,18.3689,68.6663
181891,LL,30,1.170778,-25.6488,1.219332,-143.8688,1.18014,98.9063,18.4616,-51.9956,19.6494,-171.5755,18.4386,68.9403
181891,LL,40,1.179636,-24.8722,1.215796,-143.402,1.183857,98.54,18.481,-51.5794,19.7462,-171.2515,18.4698,69.0849
181891,3LG,0,0.373305,-27.9543,0.374108,-147.8319,0.373085,92.1328,6.3252,-55.8083,6.83,-175.7887,6.329,64.0827
181891,3LG,10,1.146655,-27.5775,1.149414,-147.2022,1.141095,92.519,17.6629,-55.3607,19.0956,-175.352,17.6801,64.4629
181891,3LG,20,1.176362,-25.1358,1.17805,-144.764,1.170305,94.9046,18.1119,-52.9401,19.5814,-172.9261,18.1312,66.8828
181891,3LG,30,1.18577,-24.2667,1.187113,-143.9016,1.179664,95.7535,18.2546,-52.0804,19.7357,-172.0648,18.2747,67.7423
181891,3LG,40,1.190355,-23.822,1.191536,-143.4611,1.184249,96.1882,18.3243,-51.6407,19.8111,-171.6242,18.3448,68.182
255335,SLG,0,0.395126,-30.3649,1.648911,-148.0421,1.220393,118.1278,16.7944,-48.8121,20.8103,-163.612,19.6238,69.3029
255335,SLG,10,1.192919,-31.9583,1.262458,-138.0452,1.093048,97.6668,17.7602,-53.7712,19.4263,-169.7139,18.8298,67.6747
255335,SLG,20,1.206359,-27.2603,1.227525,-139.8373,1.14463,97.2744,18.1992,-52.1561,19.7129,-170.0982,18.7252,68.6448
255335,SLG,30,1.207285,-25.6587,1.218281,-140.5497,1.162357,97.291,18.3221,-51.554,19.8163,-170.1789,18.6737,68.9556
255335,SLG,40,1.207053,-24.8555,1.214201,-140.9237,1.171222,97.3262,18.3785,-51.2436,19.869,-170.2097,18.6449,69.107
255335,LL,0,0.373982,-26.3503,0.412886,-147.4977,1.491151,102.5357,11.9106,-77.79,12.1844,-139.54,20.4644,72.3343
255335,LL,10,1.083812,-31.9235,1.247814,-148.3006,1.160889,102.5727,18.2483,-55.221,18.7959,-174.2966,18.0763,67.8931
255335,LL,20,1.152079,-27.5826,1.230694,-144.8593,1.168789,99.8168,18.4251,-52.92,19.4429,-172.3392,18.3615,68.6026
255335,LL,30,1.171481,-25.9367,1.222426,-143.8564,1.176404,98.9754,18.4693,-52.0767,19.6445,-171.6575,18.4361,68.899
255335,LL,40,1.180379,-25.0857,1.218019,-143.3862,1.18102,98.5819,18.4878,-51.6412,19.7428,-171.3126,18.4688,69.0547
255335,3LG,0,0.395363,-25.3969,0.396349,-145.2657,0.39523,94.7061,6.6999,-53.2453,7.2351,-173.2189,6.7048,66.6465
255335,3LG,10,1.14573,-27.8634,1.148739,-147.465,1.139913,92.2586,17.6488,-55.6311,19.0802,-175.6214,17.6659,64.1941
255335,3LG,20,1.176332,-25.2905,1.178051,-144.9048,1.170048,94.7597,18.1106,-53.0872,19.5798,-173.0727,18.1298,66.7365
255335,3LG,30,1.185858,-24.3719,1.187197,-143.9974,1.179586,95.6538,18.2552,-52.1809,19.7362,-172.1648,18.2752,67.6424
255335,3LG,40,1.190463,-23.9015,1.191632,-143.5337,1.184228,96.1124,18.3253,-51.7168,19.8121,-171.7001,18.3457,68.1063
182030,SLG,0,0.419525,-33.1097,1.641788,-147.5062,1.205611,117.7476,16.6583,-49.234,20.7181,-163.7242,19.5672,68.8792
182030,SLG,10,1.19216,-31.8805,1.262258,-138.087,1.093921,97.6852,17.7623,-53.7328,19.4319,-169.7122,18.8252,67.6867
182030,SLG,20,1.206096,-27.242,1.22754,-139.8488,1.144827,97.2816,18.199,-52.1462,19.7143,-170.0967,18.7238,68.647
182030,SLG,30,1.207158,-25.6509,1.218298,-140.5548,1.16244,97.2946,18.322,-51.5496,19.8169,-170.1781,18.673,68.9565
182030,SLG,40,1.206978,-24.8512,1.214214,-140.9265,1.171267,97.3282,18.3784,-51.2411,19.8693,-170.2092,18.6445,69.1074
182030,LL,0,0.401253,-27.6126,0.446529,-150.5196,1.483303,102.772,12.1376,-76.2618,12.3811,-142.3738,20.3397,71.8497
182030,LL,10,1.084317,-31.8173,1.246475,-148.2601,1.161601,102.5237,18.2462,-55.1879,18.7975,-174.2535,18.0793,67.9161
182030,LL,20,1.152076,-27.5544,1.23035,-144.8542,1.169056,99.8091,18.4241,-52.9108,19.4429,-172.3289,18.3615,68.6088
182030,LL,30,1.171459,-25.9242,1.222277,-143.8549,1.17653,98.9728,18.4688,-52.0725,19.6444,-171.653,18.436,68.9017
182030,LL,40,1.180361,-25.0788,1.217938,-143.3856,1.181092,98.5808,18.4874,-51.6388,19.7428,-171.3101,18.4687,69.0562
182030,3LG,0,0.429554,-27.4721,0.430706,-147.3319,0.429371,92.6372,7.2793,-55.3134,7.8614,-175.2883,7.2848,64.5739
182030,3LG,10,1.14571,-27.8194,1.148691,-147.4221,1.139901,92.3008,17.6484,-55.5881,19.0797,-175.5783,17.6655,64.2372
182030,3LG,20,1.176303,-25.279,1.178017,-144.8937,1.170025,94.7709,18.1101,-53.0759,19.5793,-173.0614,18.1294,66.7477
182030,3LG,30,1.185841,-24.3667,1.187179,-143.9924,1.179572,95.6589,18.2549,-52.1758,19.736,-172.1597,18.2749,67.6475
182030,3LG,40,1.190452,-23.8986,1.191621,-143.5309,1.184219,96.1153,18.3251,-51.714,19.8119,-171.6972,18.3456,68.1091
182153,SLG,0,0.555746,-37.8529,1.618686,-145.4008,1.149273,116.322,16.3999,-49.2495,20.565,-164.6211,19.0513,67.7984
182153,SLG,10,1.191708,-33.1127,1.275878,-137.3564,1.075379,97.9514,17.6446,-53.9648,19.379,-169.4575,18.8435,67.549
182153,SLG,20,1.211339,-27.9037,1.230111,-139.3053,1.133702,97.0705,18.1477,-52.3712,19.6729,-170.0372,18.7415,68.5247
182153,SLG,30,1.211816,-26.1051,1.219149,-140.1644,1.154995,97.1114,18.2938,-51.7194,19.7868,-170.1503,18.6894,68.8777
182153,SLG,40,1.210923,-25.195,1.214494,-140.6249,1.16571,97.1751,18.3598,-51.3751,19.846,-170.1931,18.6585,69.0501
182153,LL,0,0.570368,-32.1858,0.593219,-157.7368,1.44877,103.2031,14.1343,-69.1403,13.7782,-157.363,19.7925,69.9056
182153,LL,10,1.067706,-32.4631,1.252974,-149.1748,1.16253,103.4627,18.2483,-55.4241,18.6811,-174.6843,17.9827,67.9663
182153,LL,20,1.145154,-28.4149,1.239265,-145.1341,1.161271,100.3134,18.4138,-53.1791,19.3845,-172.5985,18.3226,68.5017
182153,LL,30,1.168216,-26.5619,1.228553,-143.9901,1.169984,99.262,18.4666,-52.2809,19.6068,-171.8447,18.4161,68.8154
182153,LL,40,1.178506,-25.5774,1.222674,-143.4669,1.175745,98.776,18.4879,-51.8061,19.715,-171.4582,18.4562,68.9873
182153,3LG,0,0.596156,-34.4857,0.5984,-154.264,0.595297,85.6662,11.3212,-62.2184,12.2645,177.801,11.3365,57.5729
182153,3LG,10,1.140133,-28.2692,1.143724,-147.8557,1.134408,91.8888,17.5661,-56.0207,18.9908,-176.0102,17.5831,63.8062
182153,3LG,20,1.173749,-25.6168,1.175686,-145.2116,1.16725,94.4541,18.0709,-53.4004,19.5368,-173.3852,18.09,66.4241
182153,3LG,30,1.18428,-24.6182,1.185716,-144.229,1.177802,95.42,18.2304,-52.4183,19.7094,-172.4017,18.2503,67.4055
182153,3LG,40,1.189348,-24.0972,1.190568,-143.7179,1.182937,95.9254,18.3075,-51.9059,19.7929,-171.8888,18.3279,67.9176
182158,SLG,0,0.602825,-37.5985,1.605117,-144.8833,1.137251,115.5466,16.3727,-49.0182,20.5437,-164.9882,18.8554,67.5551
182158,SLG,10,1.191141,-33.5143,1.281398,-137.1173,1.06902,98.1066,17.6066,-54.0058,19.3665,-169.355,18.8475,67.524
182158,SLG,20,1.213621,-28.1163,1.230899,-139.105,1.129698,96.9834,18.1316,-52.4399,19.6601,-170.0155,18.7468,68.4868
182158,SLG,30,1.213888,-26.2499,1.219259,-140.0191,1.152344,97.0333,18.2858,-51.7735,19.7772,-170.141,18.6948,68.854
182158,SLG,40,1.21269,-25.3036,1.214403,-140.5126,1.16375,97.1093,18.355,-51.4183,19.8385,-170.1883,18.6633,69.0332
182158,LL,0,0.617032,-32.0563,0.641311,-157.3363,1.435275,103.1934,15.0085,-66.7196,14.4792,-161.5931,19.6526,69.7486
182158,LL,10,1.067234,-32.2166,1.250377,-149.5359,1.167046,103.5944,18.3005,-55.4048,18.6627,-174.84,17.9627,68.0983
182158,LL,20,1.142917,-28.7025,1.242835,-145.2249,1.158485,100.5039,18.4131,-53.2525,19.3697,-172.6879,18.3086,68.4713
182158,LL,30,1.167402,-26.7827,1.231119,-144.0244,1.167475,99.3669,18.4682,-52.3414,19.5982,-171.9088,18.4094,68.7881
182158,LL,40,1.178186,-25.7516,1.224612,-143.4823,1.173661,98.8438,18.4901,-51.8558,19.7088,-171.5078,18.4524,68.965
182158,3LG,0,0.643808,-34.2576,0.646428,-154.0,0.642602,85.9089,12.8296,-61.9644,13.9012,178.0564,12.8477,57.815
182158,3LG,10,1.138675,-28.3879,1.142448,-147.9724,1.133012,91.7795,17.545,-56.1356,18.968,-176.1254,17.5618,63.6913
182158,3LG,20,1.173204,-25.7197,1.175215,-145.3082,1.166628,94.3577,18.0625,-53.499,19.5278,-173.4838,18.0815,66.3255
182158,3LG,30,1.184006,-24.6971,1.185467,-144.3028,1.177447,95.3449,18.2259,-52.4942,19.7045,-172.4776,18.2457,67.3296
182158,3LG,40,1.189183,-24.1602,1.190411,-143.7769,1.182702,95.8648,18.3047,-51.9668,19.7898,-171.9496,18.325,67.8567
182162,SLG,0,0.642697,-37.1019,1.592628,-144.4961,1.129078,114.8426,16.3674,-48.765,20.5353,-165.3155,18.6863,67.3824
182162,SLG,10,1.190217,-33.9161,1.287317,-136.8891,1.062622,98.2882,17.5679,-54.0352,19.3557,-169.2491,18.8498,67.5017
182162,SLG,20,1.215914,-28.3291,1.231771,-138.9026,1.125615,96.8971,18.1151,-52.5067,19.6476,-169.9928,18.7517,68.4491
182162,SLG,30,1.216021,-26.3937,1.219375,-139.8715,1.149654,96.9535,18.2779,-51.8268,19.7678,-170.1316,18.7001,68.8307
182162,SLG,40,1.214522,-25.4109,1.214295,-140.3984,1.16177,97.0413,18.3505,-51.461,19.8311,-170.1836,18.668,69.0167
182162,LL,0,0.655687,-31.8173,0.680518,-156.6912,1.423534,103.1338,15.7111,-64.8314,15.0911,-164.6341,19.5037,69.6974
182162,LL,10,1.066918,-31.9758,1.24763,-149.8829,1.171563,103.7161,18.3513,-55.3911,18.643,-174.9873,17.9451,68.2305
182162,LL,20,1.14051,-28.9855,1.246539,-145.3236,1.155816,100.706,18.4129,-53.3208,19.3557,-172.7775,18.294,68.4432
182162,LL,30,1.166558,-27.0034,1.233811,-144.0598,1.164948,99.477,18.4701,-52.3988,19.5903,-171.9728,18.4026,68.7614
182162,LL,40,1.177886,-25.9262,1.226642,-143.4967,1.171537,98.914,18.4926,-51.9033,19.7035,-171.5572,18.4485,68.9428
182162,3LG,0,0.682358,-33.8579,0.685274,-153.5692,0.680808,86.3192,14.0483,-61.5474,15.2242,178.4746,14.0687,58.2224
182162,3LG,10,1.137294,-28.5,1.141248,-148.0839,1.131715,91.6761,17.5251,-56.2446,18.9465,-176.2347,17.5419,63.5824
182162,3LG,20,1.172717,-25.8197,1.17481,-145.402,1.166068,94.2645,18.055,-53.5946,19.5199,-173.5794,18.074,66.2299
182162,3LG,30,1.183782,-24.7741,1.185272,-144.3746,1.177141,95.2718,18.2222,-52.5681,19.7006,-172.5515,18.242,67.2557
182162,3LG,40,1.189061,-24.2219,1.190298,-143.8345,1.182508,95.8057,18.3025,-52.0262,19.7875,-172.009,18.3228,67.7973
